<?xml version="1.0" encoding="UTF-8"?>
<!DOCTYPE plans SYSTEM "http://www.matsim.org/files/dtd/plans_v4.dtd">
<plans>
  <person id="7185">
    <plan selected="yes">
      <act link="1" end_time="19:59:45" type="h"/>
      <leg mode="car">
        <route>2 4 5</route>
      </leg>
      <act link="6" type="h"/>
    </plan>
  </person>
  <person id="1026">
    <plan selected="yes">
      <act link="1" end_time="18:17:06" type="h"/>
      <leg mode="car">
        <route>2 3 5</route>
      </leg>
      <act link="6" type="h"/>
    </plan>
  </person>
  <person id="3079">
    <plan selected="yes">
      <act link="1" end_time="18:51:19" type="h"/>
      <leg mode="car">
        <route>2 4 5</route>
      </leg>
      <act link="6" type="h"/>
    </plan>
  </person>
  <person id="5132">
    <plan selected="yes">
      <act link="1" end_time="19:25:32" type="h"/>
      <leg mode="car">
        <route>2 3 5</route>
      </leg>
      <act link="6" type="h"/>
    </plan>
  </person>
  <person id="2053">
    <plan selected="yes">
      <act link="1" end_time="18:34:13" type="h"/>
      <leg mode="car">
        <route>2 4 5</route>
      </leg>
      <act link="6" type="h"/>
    </plan>
  </person>
  <person id="4106">
    <plan selected="yes">
      <act link="1" end_time="19:08:26" type="h"/>
      <leg mode="car">
        <route>2 3 5</route>
      </leg>
      <act link="6" type="h"/>
    </plan>
  </person>
  <person id="6159">
    <plan selected="yes">
      <act link="1" end_time="19:42:39" type="h"/>
      <leg mode="car">
        <route>2 4 5</route>
      </leg>
      <act link="6" type="h"/>
    </plan>
  </person>
  <person id="7186">
    <plan selected="yes">
      <act link="1" end_time="19:59:46" type="h"/>
      <leg mode="car">
        <route>2 3 5</route>
      </leg>
      <act link="6" type="h"/>
    </plan>
  </person>
  <person id="1027">
    <plan selected="yes">
      <act link="1" end_time="18:17:07" type="h"/>
      <leg mode="car">
        <route>2 4 5</route>
      </leg>
      <act link="6" type="h"/>
    </plan>
  </person>
  <person id="3080">
    <plan selected="yes">
      <act link="1" end_time="18:51:20" type="h"/>
      <leg mode="car">
        <route>2 3 5</route>
      </leg>
      <act link="6" type="h"/>
    </plan>
  </person>
  <person id="5133">
    <plan selected="yes">
      <act link="1" end_time="19:25:33" type="h"/>
      <leg mode="car">
        <route>2 4 5</route>
      </leg>
      <act link="6" type="h"/>
    </plan>
  </person>
  <person id="2054">
    <plan selected="yes">
      <act link="1" end_time="18:34:14" type="h"/>
      <leg mode="car">
        <route>2 3 5</route>
      </leg>
      <act link="6" type="h"/>
    </plan>
  </person>
  <person id="4107">
    <plan selected="yes">
      <act link="1" end_time="19:08:27" type="h"/>
      <leg mode="car">
        <route>2 4 5</route>
      </leg>
      <act link="6" type="h"/>
    </plan>
  </person>
  <person id="6160">
    <plan selected="yes">
      <act link="1" end_time="19:42:40" type="h"/>
      <leg mode="car">
        <route>2 3 5</route>
      </leg>
      <act link="6" type="h"/>
    </plan>
  </person>
  <person id="1">
    <plan selected="yes">
      <act link="1" end_time="18:00:01" type="h"/>
      <leg mode="car">
        <route>2 4 5</route>
      </leg>
      <act link="6" type="h"/>
    </plan>
  </person>
  <person id="7187">
    <plan selected="yes">
      <act link="1" end_time="19:59:47" type="h"/>
      <leg mode="car">
        <route>2 4 5</route>
      </leg>
      <act link="6" type="h"/>
    </plan>
  </person>
  <person id="1028">
    <plan selected="yes">
      <act link="1" end_time="18:17:08" type="h"/>
      <leg mode="car">
        <route>2 3 5</route>
      </leg>
      <act link="6" type="h"/>
    </plan>
  </person>
  <person id="3081">
    <plan selected="yes">
      <act link="1" end_time="18:51:21" type="h"/>
      <leg mode="car">
        <route>2 4 5</route>
      </leg>
      <act link="6" type="h"/>
    </plan>
  </person>
  <person id="5134">
    <plan selected="yes">
      <act link="1" end_time="19:25:34" type="h"/>
      <leg mode="car">
        <route>2 3 5</route>
      </leg>
      <act link="6" type="h"/>
    </plan>
  </person>
  <person id="2055">
    <plan selected="yes">
      <act link="1" end_time="18:34:15" type="h"/>
      <leg mode="car">
        <route>2 4 5</route>
      </leg>
      <act link="6" type="h"/>
    </plan>
  </person>
  <person id="4108">
    <plan selected="yes">
      <act link="1" end_time="19:08:28" type="h"/>
      <leg mode="car">
        <route>2 3 5</route>
      </leg>
      <act link="6" type="h"/>
    </plan>
  </person>
  <person id="6161">
    <plan selected="yes">
      <act link="1" end_time="19:42:41" type="h"/>
      <leg mode="car">
        <route>2 4 5</route>
      </leg>
      <act link="6" type="h"/>
    </plan>
  </person>
  <person id="2">
    <plan selected="yes">
      <act link="1" end_time="18:00:02" type="h"/>
      <leg mode="car">
        <route>2 3 5</route>
      </leg>
      <act link="6" type="h"/>
    </plan>
  </person>
  <person id="7188">
    <plan selected="yes">
      <act link="1" end_time="19:59:48" type="h"/>
      <leg mode="car">
        <route>2 3 5</route>
      </leg>
      <act link="6" type="h"/>
    </plan>
  </person>
  <person id="1029">
    <plan selected="yes">
      <act link="1" end_time="18:17:09" type="h"/>
      <leg mode="car">
        <route>2 4 5</route>
      </leg>
      <act link="6" type="h"/>
    </plan>
  </person>
  <person id="3082">
    <plan selected="yes">
      <act link="1" end_time="18:51:22" type="h"/>
      <leg mode="car">
        <route>2 3 5</route>
      </leg>
      <act link="6" type="h"/>
    </plan>
  </person>
  <person id="5135">
    <plan selected="yes">
      <act link="1" end_time="19:25:35" type="h"/>
      <leg mode="car">
        <route>2 4 5</route>
      </leg>
      <act link="6" type="h"/>
    </plan>
  </person>
  <person id="2056">
    <plan selected="yes">
      <act link="1" end_time="18:34:16" type="h"/>
      <leg mode="car">
        <route>2 3 5</route>
      </leg>
      <act link="6" type="h"/>
    </plan>
  </person>
  <person id="4109">
    <plan selected="yes">
      <act link="1" end_time="19:08:29" type="h"/>
      <leg mode="car">
        <route>2 4 5</route>
      </leg>
      <act link="6" type="h"/>
    </plan>
  </person>
  <person id="6162">
    <plan selected="yes">
      <act link="1" end_time="19:42:42" type="h"/>
      <leg mode="car">
        <route>2 3 5</route>
      </leg>
      <act link="6" type="h"/>
    </plan>
  </person>
  <person id="3">
    <plan selected="yes">
      <act link="1" end_time="18:00:03" type="h"/>
      <leg mode="car">
        <route>2 4 5</route>
      </leg>
      <act link="6" type="h"/>
    </plan>
  </person>
  <person id="7189">
    <plan selected="yes">
      <act link="1" end_time="19:59:49" type="h"/>
      <leg mode="car">
        <route>2 4 5</route>
      </leg>
      <act link="6" type="h"/>
    </plan>
  </person>
  <person id="1030">
    <plan selected="yes">
      <act link="1" end_time="18:17:10" type="h"/>
      <leg mode="car">
        <route>2 3 5</route>
      </leg>
      <act link="6" type="h"/>
    </plan>
  </person>
  <person id="3083">
    <plan selected="yes">
      <act link="1" end_time="18:51:23" type="h"/>
      <leg mode="car">
        <route>2 4 5</route>
      </leg>
      <act link="6" type="h"/>
    </plan>
  </person>
  <person id="5136">
    <plan selected="yes">
      <act link="1" end_time="19:25:36" type="h"/>
      <leg mode="car">
        <route>2 3 5</route>
      </leg>
      <act link="6" type="h"/>
    </plan>
  </person>
  <person id="2057">
    <plan selected="yes">
      <act link="1" end_time="18:34:17" type="h"/>
      <leg mode="car">
        <route>2 4 5</route>
      </leg>
      <act link="6" type="h"/>
    </plan>
  </person>
  <person id="4110">
    <plan selected="yes">
      <act link="1" end_time="19:08:30" type="h"/>
      <leg mode="car">
        <route>2 3 5</route>
      </leg>
      <act link="6" type="h"/>
    </plan>
  </person>
  <person id="6163">
    <plan selected="yes">
      <act link="1" end_time="19:42:43" type="h"/>
      <leg mode="car">
        <route>2 4 5</route>
      </leg>
      <act link="6" type="h"/>
    </plan>
  </person>
  <person id="4">
    <plan selected="yes">
      <act link="1" end_time="18:00:04" type="h"/>
      <leg mode="car">
        <route>2 3 5</route>
      </leg>
      <act link="6" type="h"/>
    </plan>
  </person>
  <person id="7190">
    <plan selected="yes">
      <act link="1" end_time="19:59:50" type="h"/>
      <leg mode="car">
        <route>2 3 5</route>
      </leg>
      <act link="6" type="h"/>
    </plan>
  </person>
  <person id="1031">
    <plan selected="yes">
      <act link="1" end_time="18:17:11" type="h"/>
      <leg mode="car">
        <route>2 4 5</route>
      </leg>
      <act link="6" type="h"/>
    </plan>
  </person>
  <person id="3084">
    <plan selected="yes">
      <act link="1" end_time="18:51:24" type="h"/>
      <leg mode="car">
        <route>2 3 5</route>
      </leg>
      <act link="6" type="h"/>
    </plan>
  </person>
  <person id="5137">
    <plan selected="yes">
      <act link="1" end_time="19:25:37" type="h"/>
      <leg mode="car">
        <route>2 4 5</route>
      </leg>
      <act link="6" type="h"/>
    </plan>
  </person>
  <person id="2058">
    <plan selected="yes">
      <act link="1" end_time="18:34:18" type="h"/>
      <leg mode="car">
        <route>2 3 5</route>
      </leg>
      <act link="6" type="h"/>
    </plan>
  </person>
  <person id="4111">
    <plan selected="yes">
      <act link="1" end_time="19:08:31" type="h"/>
      <leg mode="car">
        <route>2 4 5</route>
      </leg>
      <act link="6" type="h"/>
    </plan>
  </person>
  <person id="6164">
    <plan selected="yes">
      <act link="1" end_time="19:42:44" type="h"/>
      <leg mode="car">
        <route>2 3 5</route>
      </leg>
      <act link="6" type="h"/>
    </plan>
  </person>
  <person id="5">
    <plan selected="yes">
      <act link="1" end_time="18:00:05" type="h"/>
      <leg mode="car">
        <route>2 4 5</route>
      </leg>
      <act link="6" type="h"/>
    </plan>
  </person>
  <person id="7191">
    <plan selected="yes">
      <act link="1" end_time="19:59:51" type="h"/>
      <leg mode="car">
        <route>2 4 5</route>
      </leg>
      <act link="6" type="h"/>
    </plan>
  </person>
  <person id="1032">
    <plan selected="yes">
      <act link="1" end_time="18:17:12" type="h"/>
      <leg mode="car">
        <route>2 3 5</route>
      </leg>
      <act link="6" type="h"/>
    </plan>
  </person>
  <person id="3085">
    <plan selected="yes">
      <act link="1" end_time="18:51:25" type="h"/>
      <leg mode="car">
        <route>2 4 5</route>
      </leg>
      <act link="6" type="h"/>
    </plan>
  </person>
  <person id="5138">
    <plan selected="yes">
      <act link="1" end_time="19:25:38" type="h"/>
      <leg mode="car">
        <route>2 3 5</route>
      </leg>
      <act link="6" type="h"/>
    </plan>
  </person>
  <person id="2059">
    <plan selected="yes">
      <act link="1" end_time="18:34:19" type="h"/>
      <leg mode="car">
        <route>2 4 5</route>
      </leg>
      <act link="6" type="h"/>
    </plan>
  </person>
  <person id="4112">
    <plan selected="yes">
      <act link="1" end_time="19:08:32" type="h"/>
      <leg mode="car">
        <route>2 3 5</route>
      </leg>
      <act link="6" type="h"/>
    </plan>
  </person>
  <person id="6165">
    <plan selected="yes">
      <act link="1" end_time="19:42:45" type="h"/>
      <leg mode="car">
        <route>2 4 5</route>
      </leg>
      <act link="6" type="h"/>
    </plan>
  </person>
  <person id="6">
    <plan selected="yes">
      <act link="1" end_time="18:00:06" type="h"/>
      <leg mode="car">
        <route>2 3 5</route>
      </leg>
      <act link="6" type="h"/>
    </plan>
  </person>
  <person id="7192">
    <plan selected="yes">
      <act link="1" end_time="19:59:52" type="h"/>
      <leg mode="car">
        <route>2 3 5</route>
      </leg>
      <act link="6" type="h"/>
    </plan>
  </person>
  <person id="3086">
    <plan selected="yes">
      <act link="1" end_time="18:51:26" type="h"/>
      <leg mode="car">
        <route>2 3 5</route>
      </leg>
      <act link="6" type="h"/>
    </plan>
  </person>
  <person id="5139">
    <plan selected="yes">
      <act link="1" end_time="19:25:39" type="h"/>
      <leg mode="car">
        <route>2 4 5</route>
      </leg>
      <act link="6" type="h"/>
    </plan>
  </person>
  <person id="1033">
    <plan selected="yes">
      <act link="1" end_time="18:17:13" type="h"/>
      <leg mode="car">
        <route>2 4 5</route>
      </leg>
      <act link="6" type="h"/>
    </plan>
  </person>
  <person id="2060">
    <plan selected="yes">
      <act link="1" end_time="18:34:20" type="h"/>
      <leg mode="car">
        <route>2 3 5</route>
      </leg>
      <act link="6" type="h"/>
    </plan>
  </person>
  <person id="4113">
    <plan selected="yes">
      <act link="1" end_time="19:08:33" type="h"/>
      <leg mode="car">
        <route>2 4 5</route>
      </leg>
      <act link="6" type="h"/>
    </plan>
  </person>
  <person id="6166">
    <plan selected="yes">
      <act link="1" end_time="19:42:46" type="h"/>
      <leg mode="car">
        <route>2 3 5</route>
      </leg>
      <act link="6" type="h"/>
    </plan>
  </person>
  <person id="7">
    <plan selected="yes">
      <act link="1" end_time="18:00:07" type="h"/>
      <leg mode="car">
        <route>2 4 5</route>
      </leg>
      <act link="6" type="h"/>
    </plan>
  </person>
  <person id="7193">
    <plan selected="yes">
      <act link="1" end_time="19:59:53" type="h"/>
      <leg mode="car">
        <route>2 4 5</route>
      </leg>
      <act link="6" type="h"/>
    </plan>
  </person>
  <person id="3087">
    <plan selected="yes">
      <act link="1" end_time="18:51:27" type="h"/>
      <leg mode="car">
        <route>2 4 5</route>
      </leg>
      <act link="6" type="h"/>
    </plan>
  </person>
  <person id="5140">
    <plan selected="yes">
      <act link="1" end_time="19:25:40" type="h"/>
      <leg mode="car">
        <route>2 3 5</route>
      </leg>
      <act link="6" type="h"/>
    </plan>
  </person>
  <person id="1034">
    <plan selected="yes">
      <act link="1" end_time="18:17:14" type="h"/>
      <leg mode="car">
        <route>2 3 5</route>
      </leg>
      <act link="6" type="h"/>
    </plan>
  </person>
  <person id="2061">
    <plan selected="yes">
      <act link="1" end_time="18:34:21" type="h"/>
      <leg mode="car">
        <route>2 4 5</route>
      </leg>
      <act link="6" type="h"/>
    </plan>
  </person>
  <person id="4114">
    <plan selected="yes">
      <act link="1" end_time="19:08:34" type="h"/>
      <leg mode="car">
        <route>2 3 5</route>
      </leg>
      <act link="6" type="h"/>
    </plan>
  </person>
  <person id="6167">
    <plan selected="yes">
      <act link="1" end_time="19:42:47" type="h"/>
      <leg mode="car">
        <route>2 4 5</route>
      </leg>
      <act link="6" type="h"/>
    </plan>
  </person>
  <person id="8">
    <plan selected="yes">
      <act link="1" end_time="18:00:08" type="h"/>
      <leg mode="car">
        <route>2 3 5</route>
      </leg>
      <act link="6" type="h"/>
    </plan>
  </person>
  <person id="7194">
    <plan selected="yes">
      <act link="1" end_time="19:59:54" type="h"/>
      <leg mode="car">
        <route>2 3 5</route>
      </leg>
      <act link="6" type="h"/>
    </plan>
  </person>
  <person id="3088">
    <plan selected="yes">
      <act link="1" end_time="18:51:28" type="h"/>
      <leg mode="car">
        <route>2 3 5</route>
      </leg>
      <act link="6" type="h"/>
    </plan>
  </person>
  <person id="5141">
    <plan selected="yes">
      <act link="1" end_time="19:25:41" type="h"/>
      <leg mode="car">
        <route>2 4 5</route>
      </leg>
      <act link="6" type="h"/>
    </plan>
  </person>
  <person id="1035">
    <plan selected="yes">
      <act link="1" end_time="18:17:15" type="h"/>
      <leg mode="car">
        <route>2 4 5</route>
      </leg>
      <act link="6" type="h"/>
    </plan>
  </person>
  <person id="2062">
    <plan selected="yes">
      <act link="1" end_time="18:34:22" type="h"/>
      <leg mode="car">
        <route>2 3 5</route>
      </leg>
      <act link="6" type="h"/>
    </plan>
  </person>
  <person id="4115">
    <plan selected="yes">
      <act link="1" end_time="19:08:35" type="h"/>
      <leg mode="car">
        <route>2 4 5</route>
      </leg>
      <act link="6" type="h"/>
    </plan>
  </person>
  <person id="6168">
    <plan selected="yes">
      <act link="1" end_time="19:42:48" type="h"/>
      <leg mode="car">
        <route>2 3 5</route>
      </leg>
      <act link="6" type="h"/>
    </plan>
  </person>
  <person id="9">
    <plan selected="yes">
      <act link="1" end_time="18:00:09" type="h"/>
      <leg mode="car">
        <route>2 4 5</route>
      </leg>
      <act link="6" type="h"/>
    </plan>
  </person>
  <person id="7195">
    <plan selected="yes">
      <act link="1" end_time="19:59:55" type="h"/>
      <leg mode="car">
        <route>2 4 5</route>
      </leg>
      <act link="6" type="h"/>
    </plan>
  </person>
  <person id="3089">
    <plan selected="yes">
      <act link="1" end_time="18:51:29" type="h"/>
      <leg mode="car">
        <route>2 4 5</route>
      </leg>
      <act link="6" type="h"/>
    </plan>
  </person>
  <person id="5142">
    <plan selected="yes">
      <act link="1" end_time="19:25:42" type="h"/>
      <leg mode="car">
        <route>2 3 5</route>
      </leg>
      <act link="6" type="h"/>
    </plan>
  </person>
  <person id="1036">
    <plan selected="yes">
      <act link="1" end_time="18:17:16" type="h"/>
      <leg mode="car">
        <route>2 3 5</route>
      </leg>
      <act link="6" type="h"/>
    </plan>
  </person>
  <person id="2063">
    <plan selected="yes">
      <act link="1" end_time="18:34:23" type="h"/>
      <leg mode="car">
        <route>2 4 5</route>
      </leg>
      <act link="6" type="h"/>
    </plan>
  </person>
  <person id="4116">
    <plan selected="yes">
      <act link="1" end_time="19:08:36" type="h"/>
      <leg mode="car">
        <route>2 3 5</route>
      </leg>
      <act link="6" type="h"/>
    </plan>
  </person>
  <person id="6169">
    <plan selected="yes">
      <act link="1" end_time="19:42:49" type="h"/>
      <leg mode="car">
        <route>2 4 5</route>
      </leg>
      <act link="6" type="h"/>
    </plan>
  </person>
  <person id="10">
    <plan selected="yes">
      <act link="1" end_time="18:00:10" type="h"/>
      <leg mode="car">
        <route>2 3 5</route>
      </leg>
      <act link="6" type="h"/>
    </plan>
  </person>
  <person id="7196">
    <plan selected="yes">
      <act link="1" end_time="19:59:56" type="h"/>
      <leg mode="car">
        <route>2 3 5</route>
      </leg>
      <act link="6" type="h"/>
    </plan>
  </person>
  <person id="3090">
    <plan selected="yes">
      <act link="1" end_time="18:51:30" type="h"/>
      <leg mode="car">
        <route>2 3 5</route>
      </leg>
      <act link="6" type="h"/>
    </plan>
  </person>
  <person id="5143">
    <plan selected="yes">
      <act link="1" end_time="19:25:43" type="h"/>
      <leg mode="car">
        <route>2 4 5</route>
      </leg>
      <act link="6" type="h"/>
    </plan>
  </person>
  <person id="1037">
    <plan selected="yes">
      <act link="1" end_time="18:17:17" type="h"/>
      <leg mode="car">
        <route>2 4 5</route>
      </leg>
      <act link="6" type="h"/>
    </plan>
  </person>
  <person id="2064">
    <plan selected="yes">
      <act link="1" end_time="18:34:24" type="h"/>
      <leg mode="car">
        <route>2 3 5</route>
      </leg>
      <act link="6" type="h"/>
    </plan>
  </person>
  <person id="4117">
    <plan selected="yes">
      <act link="1" end_time="19:08:37" type="h"/>
      <leg mode="car">
        <route>2 4 5</route>
      </leg>
      <act link="6" type="h"/>
    </plan>
  </person>
  <person id="6170">
    <plan selected="yes">
      <act link="1" end_time="19:42:50" type="h"/>
      <leg mode="car">
        <route>2 3 5</route>
      </leg>
      <act link="6" type="h"/>
    </plan>
  </person>
  <person id="11">
    <plan selected="yes">
      <act link="1" end_time="18:00:11" type="h"/>
      <leg mode="car">
        <route>2 4 5</route>
      </leg>
      <act link="6" type="h"/>
    </plan>
  </person>
  <person id="7197">
    <plan selected="yes">
      <act link="1" end_time="19:59:57" type="h"/>
      <leg mode="car">
        <route>2 4 5</route>
      </leg>
      <act link="6" type="h"/>
    </plan>
  </person>
  <person id="3091">
    <plan selected="yes">
      <act link="1" end_time="18:51:31" type="h"/>
      <leg mode="car">
        <route>2 4 5</route>
      </leg>
      <act link="6" type="h"/>
    </plan>
  </person>
  <person id="5144">
    <plan selected="yes">
      <act link="1" end_time="19:25:44" type="h"/>
      <leg mode="car">
        <route>2 3 5</route>
      </leg>
      <act link="6" type="h"/>
    </plan>
  </person>
  <person id="1038">
    <plan selected="yes">
      <act link="1" end_time="18:17:18" type="h"/>
      <leg mode="car">
        <route>2 3 5</route>
      </leg>
      <act link="6" type="h"/>
    </plan>
  </person>
  <person id="2065">
    <plan selected="yes">
      <act link="1" end_time="18:34:25" type="h"/>
      <leg mode="car">
        <route>2 4 5</route>
      </leg>
      <act link="6" type="h"/>
    </plan>
  </person>
  <person id="4118">
    <plan selected="yes">
      <act link="1" end_time="19:08:38" type="h"/>
      <leg mode="car">
        <route>2 3 5</route>
      </leg>
      <act link="6" type="h"/>
    </plan>
  </person>
  <person id="6171">
    <plan selected="yes">
      <act link="1" end_time="19:42:51" type="h"/>
      <leg mode="car">
        <route>2 4 5</route>
      </leg>
      <act link="6" type="h"/>
    </plan>
  </person>
  <person id="12">
    <plan selected="yes">
      <act link="1" end_time="18:00:12" type="h"/>
      <leg mode="car">
        <route>2 3 5</route>
      </leg>
      <act link="6" type="h"/>
    </plan>
  </person>
  <person id="7198">
    <plan selected="yes">
      <act link="1" end_time="19:59:58" type="h"/>
      <leg mode="car">
        <route>2 3 5</route>
      </leg>
      <act link="6" type="h"/>
    </plan>
  </person>
  <person id="3092">
    <plan selected="yes">
      <act link="1" end_time="18:51:32" type="h"/>
      <leg mode="car">
        <route>2 3 5</route>
      </leg>
      <act link="6" type="h"/>
    </plan>
  </person>
  <person id="5145">
    <plan selected="yes">
      <act link="1" end_time="19:25:45" type="h"/>
      <leg mode="car">
        <route>2 4 5</route>
      </leg>
      <act link="6" type="h"/>
    </plan>
  </person>
  <person id="1039">
    <plan selected="yes">
      <act link="1" end_time="18:17:19" type="h"/>
      <leg mode="car">
        <route>2 4 5</route>
      </leg>
      <act link="6" type="h"/>
    </plan>
  </person>
  <person id="4119">
    <plan selected="yes">
      <act link="1" end_time="19:08:39" type="h"/>
      <leg mode="car">
        <route>2 4 5</route>
      </leg>
      <act link="6" type="h"/>
    </plan>
  </person>
  <person id="6172">
    <plan selected="yes">
      <act link="1" end_time="19:42:52" type="h"/>
      <leg mode="car">
        <route>2 3 5</route>
      </leg>
      <act link="6" type="h"/>
    </plan>
  </person>
  <person id="13">
    <plan selected="yes">
      <act link="1" end_time="18:00:13" type="h"/>
      <leg mode="car">
        <route>2 4 5</route>
      </leg>
      <act link="6" type="h"/>
    </plan>
  </person>
  <person id="2066">
    <plan selected="yes">
      <act link="1" end_time="18:34:26" type="h"/>
      <leg mode="car">
        <route>2 3 5</route>
      </leg>
      <act link="6" type="h"/>
    </plan>
  </person>
  <person id="7199">
    <plan selected="yes">
      <act link="1" end_time="19:59:59" type="h"/>
      <leg mode="car">
        <route>2 4 5</route>
      </leg>
      <act link="6" type="h"/>
    </plan>
  </person>
  <person id="3093">
    <plan selected="yes">
      <act link="1" end_time="18:51:33" type="h"/>
      <leg mode="car">
        <route>2 4 5</route>
      </leg>
      <act link="6" type="h"/>
    </plan>
  </person>
  <person id="5146">
    <plan selected="yes">
      <act link="1" end_time="19:25:46" type="h"/>
      <leg mode="car">
        <route>2 3 5</route>
      </leg>
      <act link="6" type="h"/>
    </plan>
  </person>
  <person id="1040">
    <plan selected="yes">
      <act link="1" end_time="18:17:20" type="h"/>
      <leg mode="car">
        <route>2 3 5</route>
      </leg>
      <act link="6" type="h"/>
    </plan>
  </person>
  <person id="4120">
    <plan selected="yes">
      <act link="1" end_time="19:08:40" type="h"/>
      <leg mode="car">
        <route>2 3 5</route>
      </leg>
      <act link="6" type="h"/>
    </plan>
  </person>
  <person id="6173">
    <plan selected="yes">
      <act link="1" end_time="19:42:53" type="h"/>
      <leg mode="car">
        <route>2 4 5</route>
      </leg>
      <act link="6" type="h"/>
    </plan>
  </person>
  <person id="14">
    <plan selected="yes">
      <act link="1" end_time="18:00:14" type="h"/>
      <leg mode="car">
        <route>2 3 5</route>
      </leg>
      <act link="6" type="h"/>
    </plan>
  </person>
  <person id="2067">
    <plan selected="yes">
      <act link="1" end_time="18:34:27" type="h"/>
      <leg mode="car">
        <route>2 4 5</route>
      </leg>
      <act link="6" type="h"/>
    </plan>
  </person>
  <person id="7200">
    <plan selected="yes">
      <act link="1" end_time="20:00:00" type="h"/>
      <leg mode="car">
        <route>2 3 5</route>
      </leg>
      <act link="6" type="h"/>
    </plan>
  </person>
  <person id="3094">
    <plan selected="yes">
      <act link="1" end_time="18:51:34" type="h"/>
      <leg mode="car">
        <route>2 3 5</route>
      </leg>
      <act link="6" type="h"/>
    </plan>
  </person>
  <person id="5147">
    <plan selected="yes">
      <act link="1" end_time="19:25:47" type="h"/>
      <leg mode="car">
        <route>2 4 5</route>
      </leg>
      <act link="6" type="h"/>
    </plan>
  </person>
  <person id="1041">
    <plan selected="yes">
      <act link="1" end_time="18:17:21" type="h"/>
      <leg mode="car">
        <route>2 4 5</route>
      </leg>
      <act link="6" type="h"/>
    </plan>
  </person>
  <person id="4121">
    <plan selected="yes">
      <act link="1" end_time="19:08:41" type="h"/>
      <leg mode="car">
        <route>2 4 5</route>
      </leg>
      <act link="6" type="h"/>
    </plan>
  </person>
  <person id="6174">
    <plan selected="yes">
      <act link="1" end_time="19:42:54" type="h"/>
      <leg mode="car">
        <route>2 3 5</route>
      </leg>
      <act link="6" type="h"/>
    </plan>
  </person>
  <person id="15">
    <plan selected="yes">
      <act link="1" end_time="18:00:15" type="h"/>
      <leg mode="car">
        <route>2 4 5</route>
      </leg>
      <act link="6" type="h"/>
    </plan>
  </person>
  <person id="2068">
    <plan selected="yes">
      <act link="1" end_time="18:34:28" type="h"/>
      <leg mode="car">
        <route>2 3 5</route>
      </leg>
      <act link="6" type="h"/>
    </plan>
  </person>
  <person id="3095">
    <plan selected="yes">
      <act link="1" end_time="18:51:35" type="h"/>
      <leg mode="car">
        <route>2 4 5</route>
      </leg>
      <act link="6" type="h"/>
    </plan>
  </person>
  <person id="5148">
    <plan selected="yes">
      <act link="1" end_time="19:25:48" type="h"/>
      <leg mode="car">
        <route>2 3 5</route>
      </leg>
      <act link="6" type="h"/>
    </plan>
  </person>
  <person id="1042">
    <plan selected="yes">
      <act link="1" end_time="18:17:22" type="h"/>
      <leg mode="car">
        <route>2 3 5</route>
      </leg>
      <act link="6" type="h"/>
    </plan>
  </person>
  <person id="4122">
    <plan selected="yes">
      <act link="1" end_time="19:08:42" type="h"/>
      <leg mode="car">
        <route>2 3 5</route>
      </leg>
      <act link="6" type="h"/>
    </plan>
  </person>
  <person id="6175">
    <plan selected="yes">
      <act link="1" end_time="19:42:55" type="h"/>
      <leg mode="car">
        <route>2 4 5</route>
      </leg>
      <act link="6" type="h"/>
    </plan>
  </person>
  <person id="16">
    <plan selected="yes">
      <act link="1" end_time="18:00:16" type="h"/>
      <leg mode="car">
        <route>2 3 5</route>
      </leg>
      <act link="6" type="h"/>
    </plan>
  </person>
  <person id="2069">
    <plan selected="yes">
      <act link="1" end_time="18:34:29" type="h"/>
      <leg mode="car">
        <route>2 4 5</route>
      </leg>
      <act link="6" type="h"/>
    </plan>
  </person>
  <person id="3096">
    <plan selected="yes">
      <act link="1" end_time="18:51:36" type="h"/>
      <leg mode="car">
        <route>2 3 5</route>
      </leg>
      <act link="6" type="h"/>
    </plan>
  </person>
  <person id="5149">
    <plan selected="yes">
      <act link="1" end_time="19:25:49" type="h"/>
      <leg mode="car">
        <route>2 4 5</route>
      </leg>
      <act link="6" type="h"/>
    </plan>
  </person>
  <person id="1043">
    <plan selected="yes">
      <act link="1" end_time="18:17:23" type="h"/>
      <leg mode="car">
        <route>2 4 5</route>
      </leg>
      <act link="6" type="h"/>
    </plan>
  </person>
  <person id="4123">
    <plan selected="yes">